tests/golden/reports/dump3_bare.txt

New "Vsource.source"
! ENABLED
~ Bus1=src
~ BasekV=12.47
~ pu=1
~ Angle=0
~ Frequency=60
~ Phases=3
~ MVASC3=94.2862699380308
~ MVASC1=60.8573823417361
~ X1R1=4
~ X0R0=3
~ Isc3=4365.37316195732
~ Isc1=2817.64443281294
~ R1=0.4
~ X1=1.6
~ R0=1.2
~ X0=4.2
~ ScanType=Positive
~ Sequence=Positive
~ Bus2=src.0.0.0
~ Z1=[0.4, 1.6]
~ Z0=[1.2, 4.2]
~ Z2=[0.4, 1.6]
~ puZ1=[0.257233237878366, 1.02893295151346]
~ puZ0=[0.771699713635098, 2.70094899772284]
~ puZ2=[0.257233237878366, 1.02893295151346]
~ BaseMVA=100
~ Yearly=
~ Daily=
~ Duty=
~ Model=Thevenin
~ puZIdeal=[1E-6, 0.001]
~ Spectrum=defaultvsource
~ BaseFreq=60
~ Enabled=Yes
~ Like=

New "Line.l1"
! ENABLED
~ Bus1=src
~ Bus2=b1
~ LineCode=lc
~ Length=1
~ Phases=3
~ R1=0.301
~ X1=0.667
~ R0=0.882
~ X0=2.041
~ C1=3.4
~ C0=1.6
~ RMatrix="0.494666667 0.193666667 0.193666667 |0.193666667 0.494666667 0.193666667 |0.193666667 0.193666667 0.494666667 |"
~ XMatrix="1.125000000 0.458000000 0.458000000 |0.458000000 1.125000000 0.458000000 |0.458000000 0.458000000 1.125000000 |"
~ CMatrix="2.800 -0.600 -0.600 |-0.600 2.800 -0.600 |-0.600 -0.600 2.800 |"
~ Switch=No
~ Rg=0.01805
~ Xg=0.155081
~ rho=100
~ Geometry=
~ Units=km
~ Spacing=
~ Wires=[]
~ EarthModel=Deri
~ CNCables=[]
~ TSCables=[]
~ B1=1.28176980266464
~ B0=0.60318578948924
~ Seasons=1
~ Ratings=[ 400]
~ LineType=oh
~ NormAmps=400
~ EmergAmps=600
~ FaultRate=0.1
~ pctPerm=20
~ Repair=3
~ BaseFreq=60
~ Enabled=Yes
~ Like=

New "Transformer.tr1"
! ENABLED
~ NumWindings=2
~ phases=3
~ Wdg=1 bus=b1
~ conn=delta
~ kv=12.47
~ kVA=500.0
~ tap=1.000
~ %R=0.60
~ RdcOhms=1.586109
~ rneut=-1.000
~ xneut=0.000
~ Wdg=2 bus=blv
~ conn=wye
~ kv=0.48
~ kVA=500.0
~ tap=1.050
~ %R=0.60
~ RdcOhms=0.00078336
~ rneut=-1.000
~ xneut=0.000
~ XHL=5.000
~ XHT=35.000
~ XLT=30.000
~ X12=5.000
~ X13=35.000
~ X23=30.000
~ Xscmatrix= "5.00 "
~ NormMAxHkVA=550
~ EmergMAxHkVA=750
~ thermal=2.0
~ n=0.8
~ m=0.8
~ flrise=65
~ hsrise=15
~ %loadloss=1
~ %noloadloss=0
~ NormHkVA=550
~ EmergHkVA=750
~ Sub=No
~ MaxTap=1.1
~ MinTap=0.9
~ NumTaps=32
~ SubName=
~ %IMag=0
~ ppm_Antifloat=1
~ %Rs=[0.6, 0.6, ]
~ Bank=
~ XfmrCode=
~ XRConst=No
~ X12=5
~ X13=35
~ X23=30
~ LeadLag=Lag
~ WdgCurrents=4.650698, (-61.736), 199.3032, (118.26), 4.668254, (178.38), 200.0555, (-1.6198), 4.650632, (58.508), 199.3003, (-121.49), 
~ Core=shell
~ RDCOhms=0.00078336
~ Seasons=1
~ Ratings=[ 1100]
~ BHPoints=0
~ BHCurrent=
~ BHFlux=
~ NormAmps=25.4645267084438
~ EmergAmps=34.7243546024234
~ FaultRate=0.007
~ pctPerm=0
~ Repair=0
~ BaseFreq=60
~ Enabled=Yes
~ Like=

New "RegControl.rc1"
! ENABLED
~ Transformer=tr1
~ Winding=2
~ VReg=115
~ Band=3
~ PTRatio=2.4
~ CTPrim=300
~ R=0
~ X=0
~ Bus=
~ Delay=15
~ Reversible=No
~ RevVReg=120
~ RevBand=3
~ RevR=0
~ RevX=0
~ TapDelay=2
~ DebugTrace=No
~ MaxTapChange=16
~ InverseTime=No
~ TapWinding=2
~ VLimit=0
~ PTPhase=1
~ RevThreshold=-100
~ RevDelay=60
~ RevNeutral=No
~ EventLog=No
~ RemotePTRatio=2.4
~ TapNum=8
~ Reset=No
~ LDC_Z=0
~ Rev_Z=0
~ Cogen=No
~ Idle=No
~ IdleReverse=No
~ IdleForward=No
~ FwdThreshold=100
~ BaseFreq=60
~ Enabled=Yes
~ Like=

New "Fault.f1"
! ENABLED
~ Bus1=b1.1
~ Bus2=b1.0
~ Phases=1
~ R=20.00
~ %StdDev=0.0
~ OnTime=0.200
~ Temporary= Yes
~ MinAmps=3.0
~ MinAmps=3
~ NormAmps=0
~ EmergAmps=0
~ FaultRate=0
~ pctPerm=100
~ Repair=0
~ BaseFreq=60
~ Enabled=Yes
~ Like=

New "Fault.fg"
! ENABLED
~ Bus1=b1
~ Bus2=b1.0.0.0
~ Phases=3
~ R=0.00
~ %StdDev=0.0
~ GMatrix= (0.050 |-0.010 0.050 |-0.010 -0.010 0.050 )
~ OnTime=0.000
~ Temporary= No
~ MinAmps=5.0
~ MinAmps=5
~ NormAmps=0
~ EmergAmps=0
~ FaultRate=0
~ pctPerm=100
~ Repair=0
~ BaseFreq=60
~ Enabled=Yes
~ Like=

New "Load.ldk"
! ENABLED
~ Phases=3
~ Bus1=blv
~ kV=0.48
~ kW=150
~ PF=0.92
~ Model=1
~ Yearly=
~ Daily=
~ Duty=
~ Growth=
~ Conn=wye
~ kvar=63.8997324204307
~ RNeut=-1
~ XNeut=0
~ Status=Variable
~ Class=1
~ VMinpu=0.95
~ VMaxpu=1.05
~ VMinNorm=0
~ VMinEmerg=0
~ XfkVA=0
~ AllocationFactor=0.5
~ kVA=163.04347826087
~ %Mean=50
~ %StdDev=10
~ CVRWatts=1
~ CVRVars=2
~ kWh=0
~ kWhDays=30
~ CFactor=4
~ CVRCurve=
~ NumCust=1
~ ZIPV=[ 0 0 0 0 0 0 0]
~ %SeriesRL=50
~ RelWeight=1
~ VLowpu=0.5
~ puXHarm=0
~ XRHarm=6
~ Spectrum=sp5
~ BaseFreq=60
~ Enabled=Yes
~ Like=

New "Load.ldx"
! ENABLED
~ Phases=1
~ Bus1=b1.1
~ kV=7.2
~ kW=145.2
~ PF=0.88
~ Model=1
~ Yearly=
~ Daily=
~ Duty=
~ Growth=
~ Conn=wye
~ kvar=78.3706577744503
~ RNeut=-1
~ XNeut=0
~ Status=Variable
~ Class=1
~ VMinpu=0.95
~ VMaxpu=1.05
~ VMinNorm=0
~ VMinEmerg=0
~ XfkVA=300
~ AllocationFactor=0.55
~ kVA=11.3636363636364
~ %Mean=50
~ %StdDev=10
~ CVRWatts=1
~ CVRVars=2
~ kWh=0
~ kWhDays=30
~ CFactor=4
~ CVRCurve=
~ NumCust=1
~ ZIPV=[ 0 0 0 0 0 0 0]
~ %SeriesRL=50
~ RelWeight=1
~ VLowpu=0.5
~ puXHarm=0
~ XRHarm=6
~ Spectrum=defaultload
~ BaseFreq=60
~ Enabled=Yes
~ Like=

New "Load.ldc"
! ENABLED
~ Phases=1
~ Bus1=b1.2
~ kV=7.2
~ kW=58.3333333333333
~ PF=0.88
~ Model=1
~ Yearly=
~ Daily=
~ Duty=
~ Growth=
~ Conn=wye
~ kvar=31.4849979580551
~ RNeut=-1
~ XNeut=0
~ Status=Variable
~ Class=1
~ VMinpu=0.95
~ VMaxpu=1.05
~ VMinNorm=0
~ VMinEmerg=0
~ XfkVA=0
~ AllocationFactor=0.5
~ kVA=11.3636363636364
~ %Mean=50
~ %StdDev=10
~ CVRWatts=1
~ CVRVars=2
~ kWh=12000
~ kWhDays=30
~ CFactor=3.5
~ CVRCurve=
~ NumCust=1
~ ZIPV=[ 0 0 0 0 0 0 0]
~ %SeriesRL=50
~ RelWeight=1
~ VLowpu=0.5
~ puXHarm=0
~ XRHarm=6
~ Spectrum=defaultload
~ BaseFreq=60
~ Enabled=Yes
~ Like=

New "Monitor.mon1"
! ENABLED
~ Element=Line.l1
~ Terminal=1
~ Mode=0
~ Action=
~ Residual=No
~ VIPolar=Yes
~ PPolar=Yes
~ BaseFreq=60
~ Enabled=Yes
~ Like=

New "EnergyMeter.em1"
! ENABLED
~ Element=Line.l1
~ Terminal=1
~ Action=
~ Option=[E, R, C]
~ kVANormal=0
~ kVAEmerg=0
~ PeakCurrent=[ 400 400 400]
~ ZoneList=
~ LocalOnly=No
~ Mask=[ 1 1 1 1 1 1 1 1 1 1 1 1 1 1 1 1 1 1 1 1 1 1 1 1 1 1 1 1 1 1 1 1 1 1 1 1 1 1 1 1 1 1 1 1 1 1 1 1 1 1 1 1 1 1 1 1 1 1 1 1 1 1 1 1 1 1 1]
~ Losses=Yes
~ LineLosses=Yes
~ XfmrLosses=Yes
~ SeqLosses=Yes
~ 3PhaseLosses=Yes
~ VBaseLosses=Yes
~ PhaseVoltageReport=No
~ Int_Rate=0
~ Int_Duration=0
~ SAIFI=0
~ SAIFIkW=0
~ SAIDI=0
~ CAIDI=0
~ CustInterrupts=0
~ BaseFreq=60
~ Enabled=Yes
~ Like=

New "Transformer.tup"
! ENABLED
~ NumWindings=2
~ phases=1
~ Wdg=1 bus=b1.1
~ conn=wye
~ kv=7.20
~ kVA=50.0
~ tap=1.000
~ %R=0.20
~ RdcOhms=1.76256
~ rneut=-1.000
~ xneut=0.000
~ Wdg=2 bus=ui.1
~ conn=wye
~ kv=0.24
~ kVA=50.0
~ tap=1.000
~ %R=0.20
~ RdcOhms=0.0019584
~ rneut=-1.000
~ xneut=0.000
~ XHL=2.000
~ XHT=35.000
~ XLT=30.000
~ X12=2.000
~ X13=35.000
~ X23=30.000
~ Xscmatrix= "2.00 "
~ NormMAxHkVA=55
~ EmergMAxHkVA=75
~ thermal=2.0
~ n=0.8
~ m=0.8
~ flrise=65
~ hsrise=15
~ %loadloss=0
~ %noloadloss=0
~ NormHkVA=55
~ EmergHkVA=75
~ Sub=No
~ MaxTap=1.1
~ MinTap=0.9
~ NumTaps=32
~ SubName=
~ %IMag=0
~ ppm_Antifloat=0
~ %Rs=[0.2, 0.2, ]
~ Bank=
~ XfmrCode=
~ XRConst=No
~ X12=2
~ X13=35
~ X23=30
~ LeadLag=Lag
~ WdgCurrents=1.52395, (-24.925), 45.7185, (155.08), 
~ Core=shell
~ RDCOhms=0.0019584
~ Seasons=1
~ Ratings=[ 1100]
~ BHPoints=0
~ BHCurrent=
~ BHFlux=
~ NormAmps=7.63888888888889
~ EmergAmps=10.4166666666667
~ FaultRate=0.007
~ pctPerm=0
~ Repair=0
~ BaseFreq=60
~ Enabled=Yes
~ Like=

New "UPFC.u1"
! ENABLED
~ Bus1=ui.1
~ Bus2=uo.1
~ RefkV=0.242
~ PF=1
~ Frequency=60
~ Phases=1
~ Xs=0.02
~ Tol1=0.001
~ Mode=1
~ VpqMax=24
~ LossCurve=losses
~ VHLimit=300
~ VLLimit=125
~ CLimit=265
~ refkV2=0
~ kvarLimit=5
~ Element=
~ Spectrum=default
~ BaseFreq=60
~ Enabled=Yes
~ Like=

New "UPFCControl.uc1"
~ UPFCList=
~ BaseFreq=60
~ Enabled=Yes
~ Like=
! ENABLED

New "Load.ldu"
! ENABLED
~ Phases=1
~ Bus1=uo.1
~ kV=0.24
~ kW=10
~ PF=0.95
~ Model=1
~ Yearly=
~ Daily=
~ Duty=
~ Growth=
~ Conn=wye
~ kvar=3.28684105178863
~ RNeut=-1
~ XNeut=0
~ Status=Variable
~ Class=1
~ VMinpu=0.95
~ VMaxpu=1.05
~ VMinNorm=0
~ VMinEmerg=0
~ XfkVA=0
~ AllocationFactor=0.5
~ kVA=10.5263157894737
~ %Mean=50
~ %StdDev=10
~ CVRWatts=1
~ CVRVars=2
~ kWh=0
~ kWhDays=30
~ CFactor=4
~ CVRCurve=
~ NumCust=1
~ ZIPV=[ 0 0 0 0 0 0 0]
~ %SeriesRL=50
~ RelWeight=1
~ VLowpu=0.5
~ puXHarm=0
~ XRHarm=6
~ Spectrum=defaultload
~ BaseFreq=60
~ Enabled=Yes
~ Like=

New "LoadShape.default"
~ NPts=24
~ Interval=1
~ Mult=[ 0.677 0.6256 0.6087 0.5833 0.58028 0.6025 0.657 0.7477 0.832 0.88 0.94 0.989 0.985 0.98 0.9898 0.999 1 0.958 0.936 0.913 0.876 0.876 0.828 0.756]
~ Hour=
~ Mean=0.825828333333334
~ StdDev=0.15309160814381
~ CSVFile=
~ SngFile=
~ DblFile=
~ Action=
~ QMult=
~ UseActual=No
~ PMax=1
~ QMax=0
~ SInterval=3600
~ MInterval=60
~ PBase=0
~ QBase=0
~ PMult=[ 0.677 0.6256 0.6087 0.5833 0.58028 0.6025 0.657 0.7477 0.832 0.88 0.94 0.989 0.985 0.98 0.9898 0.999 1 0.958 0.936 0.913 0.876 0.876 0.828 0.756]
~ PQCSVFile=
~ MemoryMapping=No
~ Interpolation=Avg
~ Like=

New "GrowthShape.default"
~ NPts=2
~ Year=[ 1 20]
~ Mult=[ 1.025 1.025]
~ CSVFile=
~ SngFile=
~ DblFile=
~ Like=

New "Spectrum.default"
~ NumHarm=7
~ Harmonic=[ 1 3 5 7 9 11 13]
~ %Mag=[ 100 33 20 14 11 9 7]
~ Angle=[ 0 0 0 0 0 0 0]
~ CSVFile=
~ Like=

New "Spectrum.defaultload"
~ NumHarm=7
~ Harmonic=[ 1 3 5 7 9 11 13]
~ %Mag=[ 100 1.5 20 14 1 9 7]
~ Angle=[ 0 180 180 180 180 180 180]
~ CSVFile=
~ Like=

New "Spectrum.defaultgen"
~ NumHarm=7
~ Harmonic=[ 1 3 5 7 9 11 13]
~ %Mag=[ 100 5 3 1.5 1 0.7 0.5]
~ Angle=[ 0 0 0 0 0 0 0]
~ CSVFile=
~ Like=

New "Spectrum.defaultvsource"
~ NumHarm=1
~ Harmonic=[ 1]
~ %Mag=[ 100]
~ Angle=[ 0]
~ CSVFile=
~ Like=

New "Spectrum.linear"
~ NumHarm=1
~ Harmonic=[ 1]
~ %Mag=[ 100]
~ Angle=[ 0]
~ CSVFile=
~ Like=

New "Spectrum.pwm6"
~ NumHarm=13
~ Harmonic=[ 1 3 5 7 9 11 13 15 17 19 21 23 25]
~ %Mag=[ 100 4.4 76.5 62.7 2.9 24.8 12.7 0.5 7.1 8.4 0.9 4.4 3.3]
~ Angle=[ -103 -5 28 -180 -33 -59 79 36 -253 -124 3 -30 86]
~ CSVFile=
~ Like=

New "Spectrum.dc6"
~ NumHarm=10
~ Harmonic=[ 1 3 5 7 9 11 13 15 17 19]
~ %Mag=[ 100 1.2 33.6 1.6 0.4 8.7 1.2 0.3 4.5 1.3]
~ Angle=[ -75 28 156 29 -91 49 54 148 -57 -46]
~ CSVFile=
~ Like=

New "TCC_Curve.a"
~ NPts=5
~ C_Array=[ 1 2.5 4.5 8 14]
~ T_Array=[ 0.15 0.07 0.05 0.045 0.045]
~ Like=

New "TCC_Curve.d"
~ NPts=5
~ C_Array=[ 1 2.5 4.5 8 14]
~ T_Array=[ 6 0.7 0.2 0.06 0.02]
~ Like=

New "TCC_Curve.tlink"
~ NPts=7
~ C_Array=[ 2 2.1 3 4 6 22 50]
~ T_Array=[ 300 100 10.1 4 1.4 0.1 0.02]
~ Like=

New "TCC_Curve.klink"
~ NPts=6
~ C_Array=[ 2 2.2 3 4 6 30]
~ T_Array=[ 300 20 4 1.3 0.41 0.02]
~ Like=

New "TCC_Curve.uv1547"
~ NPts=2
~ C_Array=[ 0.5 0.9]
~ T_Array=[ 0.166 2]
~ Like=

New "TCC_Curve.ov1547"
~ NPts=2
~ C_Array=[ 1.1 1.2]
~ T_Array=[ 2 0.166]
~ Like=

New "TCC_Curve.mod_inv"
~ NPts=15
~ C_Array=[ 1.1 1.3 1.5 2 3 4 5 6 7 8 9 10 20 50 100]
~ T_Array=[ 27.1053 9.9029 6.439 3.8032 2.4322 1.9458 1.6883 1.5255 1.4117 1.3267 1.2604 1.2068 0.9481 0.7468 0.6478]
~ Like=

New "TCC_Curve.very_inv"
~ NPts=15
~ C_Array=[ 1.1 1.3 1.5 2 3 4 5 6 7 8 9 10 20 50 100]
~ T_Array=[ 93.872 28.9113 16.179 7.0277 2.9423 1.7983 1.3081 1.0513 0.8995 0.8023 0.7361 0.6891 0.5401 0.4988 0.493]
~ Like=

New "TCC_Curve.ext_inv"
~ NPts=15
~ C_Array=[ 1.1 1.3 1.5 2 3 4 5 6 7 8 9 10 20 50 100]
~ T_Array=[ 134.4074 40.9913 22.6817 9.5217 3.6467 2.0017 1.2967 0.9274 0.7092 0.5693 0.4742 0.4065 0.1924 0.133 0.1245]
~ Like=

New "TCC_Curve.definite"
~ NPts=3
~ C_Array=[ 1 1.001 100]
~ T_Array=[ 300 1 1]
~ Like=

New "LineCode.lc"
~ NPhases=3
~ R1=0.30100
~ X1=0.66700
~ R0=0.88200
~ X0=2.04100
~ C1=3.40000
~ C0=1.60000
~ Units=km
~ RMatrix="0.49466667 0.19366667 0.19366667 |0.19366667 0.49466667 0.19366667 |0.19366667 0.19366667 0.49466667 |"
~ XMatrix="1.12500000 0.45800000 0.45800000 |0.45800000 1.12500000 0.45800000 |0.45800000 0.45800000 1.12500000 |"
~ CMatrix="2.80000000 -0.60000000 -0.60000000 |-0.60000000 2.80000000 -0.60000000 |-0.60000000 -0.60000000 2.80000000 |"
~ BaseFreq=60
~ NormAmps=400
~ EmergAmps=600
~ FaultRate=0.1
~ PctPerm=20
~ Repair=0
~ Kron=No
~ Rg=0.01805
~ Xg=0.155081
~ rho=100
~ Neutral=3
~ Seasons=1
~ Ratings=[400,]
~ LineType=oh

New "Spectrum.sp5"
~ NumHarm=3
~ Harmonic=[ 1 5 7]
~ %Mag=[ 100 20 12]
~ Angle=[ 0 30 60]
~ CSVFile=
~ Like=

New "XYcurve.losses"
~ NPts=3
~ Points=[ 0.9 1.0143 1 1.008 1.1 1.0143]
~ YArray=[ 1.0143 1.008 1.0143]
~ XArray=[ 0.9 1 1.1]
~ CSVFile=
~ SngFile=
~ DblFile=
~ X=0.9
~ Y=1.0143
~ XShift=0
~ YShift=0
~ XScale=1
~ YScale=1
~ Like=
! OPTIONS
! NumNodes = 11
Set Mode=Snap
Set ControlMode=Static
Set Random=Gaussian
Set hour=0
Set sec=0
Set year=0
Set frequency=60
Set stepsize=0.001
Set number=100
Set circuit=dmp3
Set editor=NotePad.exe
Set tolerance=0.0001
Set maxiterations=100
Set miniterations=2
Set loadmodel=PowerFlow
Set loadmult=1
Set Normvminpu=0.95
Set Normvmaxpu=1.05
Set Emergvminpu=0.9
Set Emergvmaxpu=1.08
Set %mean=82.58
Set %stddev=15.31
Set LDCurve=
Set %growth=2.5
Set genkw=1000
Set genpf=1
Set capkvar=600
Set addtype=generator
Set allowduplicates=No
Set zonelock=No
Set ueweight=    1.00
Set lossweight=    1.00
Set ueregs=[10]
Set lossregs=[13]
Set voltagebases=(     12.47      0.48      0.24)
Set algorithm=Normal
Set Trapezoidal=No
Set genmult=1
Set Basefrequency=60
Set harmonics=(ALL)
Set maxcontroliter=100

